2015Citenel/2014MasterDissertation/redesCemigDissertacaoEzequielUfmg/SLAU21.m
function mpc = SLAU21

%% MATPOWER Case Format : Version 2
mpc.version = '2';

%%-----  Power Flow Data  -----%%
%% system MVA base
mpc.baseMVA = 100;

%% bus data
%	bus_i	type	Pd	Qd	Gs	Bs	area	Vm	Va	baseKV	zone	Vmax	Vmin
mpc.bus = [
	103033646	3	0	0	0	0	0	1	0	13.8	0	1.1	0.9;
	103033653	1	0	0	0	0	0	1	0	13.8	0	1.1	0.9;
	103033660	1	0	0	0	0	0	1	0	13.8	0	1.1	0.9;
	103033667	1	0.0199844476	0.00623659165	0	0	0	1	0	13.8	0	1.1	0.9;
	103033674	1	0	0	0	0	0	1	0	13.8	0	1.1	0.9;
	103033681	1	0	0	0	0	0	1	0	13.8	0	1.1	0.9;
	103033688	1	0	0	0	0	0	1	0	13.8	0	1.1	0.9;
	103033695	1	0	0	0	0	0	1	0	13.8	0	1.1	0.9;
	103033702	1	0	0	0	0	0	1	0	13.8	0	1.1	0.9;
	103033709	1	0.0173771052	0.00415772777	0	0	0	1	0	13.8	0	1.1	0.9;
	103033716	1	0.0226205317	0.00623659165	0	0	0	1	0	13.8	0	1.1	0.9;
	103033723	1	0	0	0	0	0	1	0	13.8	0	1.1	0.9;
	103033730	1	0	0	0	0	0	1	0	13.8	0	1.1	0.9;
	103033737	1	0	0	0	0	0	1	0	13.8	0	1.1	0.9;
	103033744	1	0	0	0	0	0	1	0	13.8	0	1.1	0.9;
	103033751	1	0	0	0	0	0	1	0	13.8	0	1.1	0.9;
	103033758	1	0	0	0	0	0	1	0	13.8	0	1.1	0.9;
	103033765	1	0	0	0	0	0	1	0	13.8	0	1.1	0.9;
	103033772	1	0	0	0	0	0	1	0	13.8	0	1.1	0.9;
	103033779	1	0.0225669527	0.00623659165	0	0	0	1	0	13.8	0	1.1	0.9;
	103033786	1	0	0	0	0	0	1	0	13.8	0	1.1	0.9;
	103033793	1	0	0	0	0	0	1	0	13.8	0	1.1	0.9;
	103033800	1	0	0	0	0	0	1	0	13.8	0	1.1	0.9;
	103033807	1	0	0	0	0	0	1	0	13.8	0	1.1	0.9;
	103033814	1	0	0	0	0	0	1	0	13.8	0	1.1	0.9;
	103033821	1	0.0348433424	0.0103943194	0	0	0	1	0	13.8	0	1.1	0.9;
	103033828	1	0	0	0	0	0	1	0	13.8	0	1.1	0.9;
	103033835	1	0	0	0	0	0	1	0	13.8	0	1.1	0.9;
	103033842	1	0.0237992685	0.00623659165	0	0	0	1	0	13.8	0	1.1	0.9;
	103033849	1	0	0	0	0	0	1	0	13.8	0	1.1	0.9;
	103033856	1	0	0	0	0	0	1	0	13.8	0	1.1	0.9;
	103033863	1	0	0	0	0	0	1	0	13.8	0	1.1	0.9;
	103033870	1	0.0300212373	0.0103943194	0	0	0	1	0	13.8	0	1.1	0.9;
	103033877	1	0.0324912266	0.0103943194	0	0	0	1	0	13.8	0	1.1	0.9;
	103033884	1	0	0	0	0	0	1	0	13.8	0	1.1	0.9;
	103033891	1	0	0	0	0	0	1	0	13.8	0	1.1	0.9;
	103033898	1	0	0	0	0	0	1	0	13.8	0	1.1	0.9;
	103033905	1	0	0	0	0	0	1	0	13.8	0	1.1	0.9;
	103033912	1	0	0	0	0	0	1	0	13.8	0	1.1	0.9;
	103033919	1	0	0	0	0	0	1	0	13.8	0	1.1	0.9;
	103033926	1	0.0106500264	0.00346477314	0	0	0	1	0	13.8	0	1.1	0.9;
	103033933	1	0	0	0	0	0	1	0	13.8	0	1.1	0.9;
	103033940	1	0	0	0	0	0	1	0	13.8	0	1.1	0.9;
	103033947	1	0	0	0	0	0	1	0	13.8	0	1.1	0.9;
	103033954	1	0	0	0	0	0	1	0	13.8	0	1.1	0.9;
	103033961	1	0	0	0	0	0	1	0	13.8	0	1.1	0.9;
	103033968	1	0	0	0	0	0	1	0	13.8	0	1.1	0.9;
	103033975	1	0.0372972581	0.0103943194	0	0	0	1	0	13.8	0	1.1	0.9;
	103033982	1	0	0	0	0	0	1	0	13.8	0	1.1	0.9;
	103033989	1	0.0162571086	0.00512786424	0	0	0	1	0	13.8	0	1.1	0.9;
	103033996	1	0	0	0	0	0	1	0	13.8	0	1.1	0.9;
	103034003	1	0	0	0	0	0	1	0	13.8	0	1.1	0.9;
	103034010	1	0.021843637	0.00623659165	0	0	0	1	0	13.8	0	1.1	0.9;
	103034017	1	0	0	0	0	0	1	0	13.8	0	1.1	0.9;
	103034024	1	0	0	0	0	0	1	0	13.8	0	1.1	0.9;
	103034031	1	0	0	0	0	0	1	0	13.8	0	1.1	0.9;
	103034038	1	0.0330752372	0.0103943194	0	0	0	1	0	13.8	0	1.1	0.9;
	103034045	1	0	0	0	0	0	1	0	13.8	0	1.1	0.9;
	103034052	1	0	0	0	0	0	1	0	13.8	0	1.1	0.9;
	103034059	1	0.0180127424	0.00623659165	0	0	0	1	0	13.8	0	1.1	0.9;
	103034066	1	0.0195665318	0.00623659165	0	0	0	1	0	13.8	0	1.1	0.9;
	103034073	1	0	0	0	0	0	1	0	13.8	0	1.1	0.9;
	103034080	1	0.018794995	0.00623659165	0	0	0	1	0	13.8	0	1.1	0.9;
	103034087	1	0.0128979054	0.00415772777	0	0	0	1	0	13.8	0	1.1	0.9;
	103034108	1	0	0	0	0	0	1	0	13.8	0	1.1	0.9;
	103034115	1	0	0	0	0	0	1	0	13.8	0	1.1	0.9;
	103034122	1	0	0	0	0	0	1	0	13.8	0	1.1	0.9;
	103034136	1	0	0	0	0	0	1	0	13.8	0	1.1	0.9;
	103034143	1	0	0	0	0	0	1	0	13.8	0	1.1	0.9;
	103034157	1	0	0	0	0	0	1	0	13.8	0	1.1	0.9;
	103034164	1	0.0127478844	0.00415772777	0	0	0	1	0	13.8	0	1.1	0.9;
	103034171	1	0.0127586001	0.00415772777	0	0	0	1	0	13.8	0	1.1	0.9;
	103034199	1	0	0	0	0	0	1	0	13.8	0	1.1	0.9;
	103034206	1	0	0	0	0	0	1	0	13.8	0	1.1	0.9;
	103034220	1	0	0	0	0	0	1	0	13.8	0	1.1	0.9;
	103034297	1	0	0	0	0	0	1	0	13.8	0	1.1	0.9;
	103034304	1	0	0	0	0	0	1	0	13.8	0	1.1	0.9;
	103034311	1	0	0	0	0	0	1	0	13.8	0	1.1	0.9;
	103034318	1	0	0	0	0	0	1	0	13.8	0	1.1	0.9;
	103034325	1	0.0187628476	0.00623659165	0	0	0	1	0	13.8	0	1.1	0.9;
	103034332	1	0	0	0	0	0	1	0	13.8	0	1.1	0.9;
	103034339	1	0	0	0	0	0	1	0	13.8	0	1.1	0.9;
	103034346	1	0	0	0	0	0	1	0	13.8	0	1.1	0.9;
	103034353	1	0.0310928162	0.0103943194	0	0	0	1	0	13.8	0	1.1	0.9;
	103034360	1	0.0329680793	0.0103943194	0	0	0	1	0	13.8	0	1.1	0.9;
	103034367	1	0	0	0	0	0	1	0	13.8	0	1.1	0.9;
	103034374	1	0.0324269319	0.0103943194	0	0	0	1	0	13.8	0	1.1	0.9;
	103034381	1	0	0	0	0	0	1	0	13.8	0	1.1	0.9;
	103034388	1	0	0	0	0	0	1	0	13.8	0	1.1	0.9;
	103034395	1	0	0	0	0	0	1	0	13.8	0	1.1	0.9;
	103034402	1	0.00805096317	0.00207886388	0	0	0	1	0	13.8	0	1.1	0.9;
	103034409	1	0.0328877108	0.0103943194	0	0	0	1	0	13.8	0	1.1	0.9;
	103034416	1	0	0	0	0	0	1	0	13.8	0	1.1	0.9;
	103034423	1	0	0	0	0	0	1	0	13.8	0	1.1	0.9;
	103034430	1	0	0	0	0	0	1	0	13.8	0	1.1	0.9;
	103034437	1	0	0	0	0	0	1	0	13.8	0	1.1	0.9;
	103034444	1	0.0124605104	0.00207886388	0	0	0	1	0	13.8	0	1.1	0.9;
	103034451	1	0	0	0	0	0	1	0	13.8	0	1.1	0.9;
	103034486	1	0	0	0	0	0	1	0	13.8	0	1.1	0.9;
	103034493	1	0.126042475	0.0273886388	0	0	0	1	0	13.8	0	1.1	0.9;
	103034500	1	0	0	0	0	0	1	0	13.8	0	1.1	0.9;
	103034507	1	0.019861216	0.00623659165	0	0	0	1	0	13.8	0	1.1	0.9;
	103034514	1	0	0	0	0	0	1	0	13.8	0	1.1	0.9;
	103034521	1	0.0320840267	0.0103943194	0	0	0	1	0	13.8	0	1.1	0.9;
	103034528	1	0	0	0	0	0	1	0	13.8	0	1.1	0.9;
	103034535	1	0	0	0	0	0	1	0	13.8	0	1.1	0.9;
	103034542	1	0	0	0	0	0	1	0	13.8	0	1.1	0.9;
	103034549	1	0.0195129528	0.00623659165	0	0	0	1	0	13.8	0	1.1	0.9;
	103034556	1	0	0	0	0	0	1	0	13.8	0	1.1	0.9;
	103034563	1	0	0	0	0	0	1	0	13.8	0	1.1	0.9;
	103034570	1	0.0200487423	0.00623659165	0	0	0	1	0	13.8	0	1.1	0.9;
	103034577	1	0	0	0	0	0	1	0	13.8	0	1.1	0.9;
	103034584	1	0	0	0	0	0	1	0	13.8	0	1.1	0.9;
	103034591	1	0	0	0	0	0	1	0	13.8	0	1.1	0.9;
	103034626	1	0	0	0	0	0	1	0	13.8	0	1.1	0.9;
	103034633	1	0	0	0	0	0	1	0	13.8	0	1.1	0.9;
	103034640	1	0	0	0	0	0	1	0	13.8	0	1.1	0.9;
	103034647	1	0	0	0	0	0	1	0	13.8	0	1.1	0.9;
	103034654	1	0.0194057949	0.00623659165	0	0	0	1	0	13.8	0	1.1	0.9;
	103034661	1	0	0	0	0	0	1	0	13.8	0	1.1	0.9;
	103034668	1	0.033235974	0.0103943194	0	0	0	1	0	13.8	0	1.1	0.9;
	103034675	1	0	0	0	0	0	1	0	13.8	0	1.1	0.9;
	103034682	1	0.0195129528	0.00623659165	0	0	0	1	0	13.8	0	1.1	0.9;
	103034689	1	0	0	0	0	0	1	0	13.8	0	1.1	0.9;
	103034696	1	0.0322983424	0.0103943194	0	0	0	1	0	13.8	0	1.1	0.9;
	103034703	1	0.0197272686	0.00623659165	0	0	0	1	0	13.8	0	1.1	0.9;
	103034710	1	0.0319500793	0.0103943194	0	0	0	1	0	13.8	0	1.1	0.9;
	103034717	1	0.0166321612	0.00512786424	0	0	0	1	0	13.8	0	1.1	0.9;
	103034724	1	0	0	0	0	0	1	0	13.8	0	1.1	0.9;
	103034731	1	0	0	0	0	0	1	0	13.8	0	1.1	0.9;
	103034738	1	0	0	0	0	0	1	0	13.8	0	1.1	0.9;
	103034745	1	0.0206381107	0.00623659165	0	0	0	1	0	13.8	0	1.1	0.9;
	103034752	1	0	0	0	0	0	1	0	13.8	0	1.1	0.9;
	103034759	1	0.0323787109	0.0103943194	0	0	0	1	0	13.8	0	1.1	0.9;
	103034766	1	0	0	0	0	0	1	0	13.8	0	1.1	0.9;
	103034773	1	0	0	0	0	0	1	0	13.8	0	1.1	0.9;
	103034780	1	0	0	0	0	0	1	0	13.8	0	1.1	0.9;
	103034787	1	0	0	0	0	0	1	0	13.8	0	1.1	0.9;
	103034794	1	0.032271553	0.0103943194	0	0	0	1	0	13.8	0	1.1	0.9;
	103034801	1	0	0	0	0	0	1	0	13.8	0	1.1	0.9;
	103034808	1	0.0614355271	0.0207886388	0	0	0	1	0	13.8	0	1.1	0.9;
	103034815	1	0	0	0	0	0	1	0	13.8	0	1.1	0.9;
	103034822	1	0.0136158633	0.00415772777	0	0	0	1	0	13.8	0	1.1	0.9;
	103034829	1	0	0	0	0	0	1	0	13.8	0	1.1	0.9;
	103034836	1	0.032271553	0.0103943194	0	0	0	1	0	13.8	0	1.1	0.9;
	103034843	1	0.0190843213	0.00623659165	0	0	0	1	0	13.8	0	1.1	0.9;
	103034850	1	0	0	0	0	0	1	0	13.8	0	1.1	0.9;
	103034857	1	0.128063712	0.0349829582	0	0	0	1	0	13.8	0	1.1	0.9;
	103034864	1	0	0	0	0	0	1	0	13.8	0	1.1	0.9;
	103034871	1	0.0326198161	0.0103943194	0	0	0	1	0	13.8	0	1.1	0.9;
	103034878	1	0	0	0	0	0	1	0	13.8	0	1.1	0.9;
	103034885	1	0.0321108161	0.0103943194	0	0	0	1	0	13.8	0	1.1	0.9;
	103034892	1	0	0	0	0	0	1	0	13.8	0	1.1	0.9;
	103034899	1	0	0	0	0	0	1	0	13.8	0	1.1	0.9;
	103034906	1	0.0331288161	0.0103943194	0	0	0	1	0	13.8	0	1.1	0.9;
	103034913	1	0	0	0	0	0	1	0	13.8	0	1.1	0.9;
	103034920	1	0.0323251319	0.0103943194	0	0	0	1	0	13.8	0	1.1	0.9;
	103034927	1	0.0329145003	0.0103943194	0	0	0	1	0	13.8	0	1.1	0.9;
	103034934	1	0	0	0	0	0	1	0	13.8	0	1.1	0.9;
	103034941	1	0	0	0	0	0	1	0	13.8	0	1.1	0.9;
	103035046	1	0	0	0	0	0	1	0	13.8	0	1.1	0.9;
	103035053	1	0.0332895529	0.0103943194	0	0	0	1	0	13.8	0	1.1	0.9;
	103035060	1	0	0	0	0	0	1	0	13.8	0	1.1	0.9;
	103035067	1	0	0	0	0	0	1	0	13.8	0	1.1	0.9;
	103035074	1	0.0195129528	0.00623659165	0	0	0	1	0	13.8	0	1.1	0.9;
	103035081	1	0	0	0	0	0	1	0	13.8	0	1.1	0.9;
	103035088	1	0.0312696267	0.0103943194	0	0	0	1	0	13.8	0	1.1	0.9;
	103035095	1	0.0161499507	0.00512786424	0	0	0	1	0	13.8	0	1.1	0.9;
	103035102	1	0	0	0	0	0	1	0	13.8	0	1.1	0.9;
	103035109	1	0.0132408107	0.00415772777	0	0	0	1	0	13.8	0	1.1	0.9;
	103035116	1	0.019502237	0.00623659165	0	0	0	1	0	13.8	0	1.1	0.9;
	103035123	1	0.0159034875	0.00512786424	0	0	0	1	0	13.8	0	1.1	0.9;
	103035130	1	0	0	0	0	0	1	0	13.8	0	1.1	0.9;
	103035137	1	0	0	0	0	0	1	0	13.8	0	1.1	0.9;
	103035144	1	0.0335038687	0.0103943194	0	0	0	1	0	13.8	0	1.1	0.9;
	103035151	1	0	0	0	0	0	1	0	13.8	0	1.1	0.9;
	103035158	1	0	0	0	0	0	1	0	13.8	0	1.1	0.9;
	103035165	1	0	0	0	0	0	1	0	13.8	0	1.1	0.9;
	103035172	1	0	0	0	0	0	1	0	13.8	0	1.1	0.9;
	103035179	1	0	0	0	0	0	1	0	13.8	0	1.1	0.9;
	103035186	1	0	0	0	0	0	1	0	13.8	0	1.1	0.9;
	103035193	1	0	0	0	0	0	1	0	13.8	0	1.1	0.9;
	103035200	1	0.0137230212	0.00415772777	0	0	0	1	0	13.8	0	1.1	0.9;
	103035207	1	0	0	0	0	0	1	0	13.8	0	1.1	0.9;
	103035214	1	0	0	0	0	0	1	0	13.8	0	1.1	0.9;
	103035249	1	0	0	0	0	0	1	0	13.8	0	1.1	0.9;
	103035256	1	0	0	0	0	0	1	0	13.8	0	1.1	0.9;
	103035263	1	0.0332895529	0.0103943194	0	0	0	1	0	13.8	0	1.1	0.9;
	103035270	1	0	0	0	0	0	1	0	13.8	0	1.1	0.9;
	103035277	1	0.0218168475	0.00623659165	0	0	0	1	0	13.8	0	1.1	0.9;
	103035284	1	0.0155447053	0.00415772777	0	0	0	1	0	13.8	0	1.1	0.9;
	103035298	1	0	0	0	0	0	1	0	13.8	0	1.1	0.9;
	103035305	1	0	0	0	0	0	1	0	13.8	0	1.1	0.9;
	103035347	1	0	0	0	0	0	1	0	13.8	0	1.1	0.9;
	103035354	1	0	0	0	0	0	1	0	13.8	0	1.1	0.9;
	103035368	1	0	0	0	0	0	1	0	13.8	0	1.1	0.9;
	103035375	1	0.0940424745	0.0241886388	0	0	0	1	0	13.8	0	1.1	0.9;
	103035382	1	0	0	0	0	0	1	0	13.8	0	1.1	0.9;
	103035389	1	0.00630428955	0.00207886388	0	0	0	1	0	13.8	0	1.1	0.9;
	103035396	1	0	0	0	0	0	1	0	13.8	0	1.1	0.9;
...
];

%% generator data
%	bus	Pg	Qg	Qmax	Qmin	Vg	mBase	status	Pmax	Pmin	Pc1	Pc2	Qc1min	Qc1max	Qc2min	Qc2max	ramp_agc	ramp_10	ramp_30	ramp_q	apf
mpc.gen = [
	103033646	5	0	2.5	-2.5	1	100	1	10	5	0	0	0	0	0	0	0	0	0	0	0;
];

%% branch data
%	fbus	tbus	r	x	b	rateA	rateB	rateC	ratio	angle	status	angmin	angmax
mpc.branch = [
	103033660	2811229	0.0127260446	0.0134528053	-2.62549884e-07	0.0037812	0.005658	0.0062928	1	0	1	-360	360;
	2811229	103033667	0.013459907	0.0142285773	-2.62549884e-07	0.0037812	0.005658	0.0062928	1	0	1	-360	360;
	103033674	103033681	0.00407100295	0.00430349036	-2.62549884e-07	0.0037812	0.005658	0.0062928	1	0	1	-360	360;
	103033653	103033660	2.62549884e-05	2.62549884e-05	-2.62549884e-07	6	8	10	1	0	1	-360	360;
	103033716	103033723	0.0083585192	0.0088358587	-2.62549884e-07	0.0037812	0.005658	0.0062928	1	0	1	-360	360;
	103033702	103033709	0.0744940743	0.0500366472	-2.62549884e-07	0.001656	0.002484	0.0027738	1	0	1	-360	360;
	103033709	103033730	0.0749494865	0.0503425413	-2.62549884e-07	0.001656	0.002484	0.0027738	1	0	1	-360	360;
	103033737	103033744	0.00396855838	0.00419519537	-2.62549884e-07	0.0037812	0.005658	0.0062928	1	0	1	-360	360;
	103033744	103033751	0.0252826858	0.0267265329	-2.62549884e-07	0.0037812	0.005658	0.0062928	1	0	1	-360	360;
	103033723	103033737	2.62549884e-05	2.62549884e-05	-2.62549884e-07	6	8	10	1	0	1	-360	360;
	103033772	103033786	0.0174530983	0.0184498123	-2.62549884e-07	0.0037812	0.005658	0.0062928	1	0	1	-360	360;
	103033772	103033779	0.0163806569	0.00675253478	-2.62549884e-07	0.001863	0.0028014	0.003105	1	0	1	-360	360;
	103033779	103033807	0.0504797512	0.0208090724	-2.62549884e-07	0.001863	0.0028014	0.003105	1	0	1	-360	360;
	103033814	103033828	0.00503475177	0.00532227708	-2.62549884e-07	0.0037812	0.005658	0.0062928	1	0	1	-360	360;
	103033814	103033821	0.0260868116	0.0107536654	-2.62549884e-07	0.001863	0.0028014	0.003105	1	0	1	-360	360;
	103033828	103033835	2.62549884e-05	2.62549884e-05	-2.62549884e-07	6	8	10	1	0	1	-360	360;
	103033835	103033842	0.0255653658	0.0270253563	-2.62549884e-07	0.0037812	0.005658	0.0062928	1	0	1	-360	360;
	103033849	103033856	0.012603318	0.0133230701	-2.62549884e-07	0.0037812	0.005658	0.0062928	1	0	1	-360	360;
	103033856	103033870	0.00413450411	0.00437061796	-2.62549884e-07	0.0037812	0.005658	0.0062928	1	0	1	-360	360;
	103033877	103033884	0.0148968523	0.0157475838	-2.62549884e-07	0.0037812	0.005658	0.0062928	1	0	1	-360	360;
	103033884	103033891	0.0110254528	0.0116550959	-2.62549884e-07	0.0037812	0.005658	0.0062928	1	0	1	-360	360;
	103033891	103033905	0.005331819	0.00674012923	-2.62549884e-07	0.0025944	0.0038916	0.0043332	1	0	1	-360	360;
	103033891	103033898	0.00112155748	0.00141779801	-2.62549884e-07	0.0025944	0.0038916	0.0043332	1	0	1	-360	360;
	103033898	103033926	0.0580804394	0.0649630328	-2.62549884e-07	0.0006624	0.0013662	0.0015318	1	0	1	-360	360;
	103033905	103033912	0.00745925039	0.00788523431	-2.62549884e-07	0.0037812	0.005658	0.0062928	1	0	1	-360	360;
	103033912	103033919	2.62549884e-05	2.62549884e-05	-2.62549884e-07	6	8	10	1	0	1	-360	360;
	103033919	103033933	0.00957920919	0.01012626	-2.62549884e-07	0.0037812	0.005658	0.0062928	1	0	1	-360	360;
	103033933	103033947	0.0106612247	0.0043948354	-2.62549884e-07	0.001863	0.0028014	0.003105	1	0	1	-360	360;
	103033975	103033982	0.0920981148	0.0405068298	-2.62549884e-07	0.0012282	0.0018492	0.0020562	1	0	1	-360	360;
	103033940	103033968	2.62549884e-05	2.62549884e-05	-2.62549884e-07	6	8	10	1	0	1	-360	360;
	103033996	103034003	0.0150451942	0.0101056504	-2.62549884e-07	0.001656	0.002484	0.0027738	1	0	1	-360	360;
	103034017	103034024	0.0525909347	0.035324609	-2.62549884e-07	0.001656	0.002484	0.0027738	1	0	1	-360	360;
	103034024	103034031	0.032658814	0.0365289179	-2.62549884e-07	0.0006624	0.0013662	0.0015318	1	0	1	-360	360;
	103034038	103034045	0.0227458989	0.0152781081	-2.62549884e-07	0.001656	0.002484	0.0027738	1	0	1	-360	360;
	103033961	103033996	2.62549884e-05	2.62549884e-05	-2.62549884e-07	6	8	10	1	0	1	-360	360;
	103034059	103034066	0.0630011944	0.0704669024	-2.62549884e-07	0.0006624	0.0013662	0.0015318	1	0	1	-360	360;
	103034066	103034073	0.0190589465	0.0083825549	-2.62549884e-07	0.0012282	0.0018492	0.0020562	1	0	1	-360	360;
	103034073	103034087	0.19573207	0.218926526	-2.62549884e-07	0.0006624	0.0013662	0.0015318	1	0	1	-360	360;
	103033646	103033653	0.00339319088	0.00358696971	-2.62549884e-07	0.0037812	0.005658	0.0062928	1	0	1	-360	360;
	103033667	103033674	0.00732530416	0.00774363866	-2.62549884e-07	0.0037812	0.005658	0.0062928	1	0	1	-360	360;
	103033674	103033695	0.0128276257	0.0135601876	-2.62549884e-07	0.0037812	0.005658	0.0062928	1	0	1	-360	360;
	103033681	103033688	2.62549884e-05	2.62549884e-05	-2.62549884e-07	6	8	10	1	0	1	-360	360;
	103033695	103033702	2.62549884e-05	2.62549884e-05	-2.62549884e-07	6	8	10	1	0	1	-360	360;
	103033702	103033716	0.0113694287	0.0120187156	-2.62549884e-07	0.0037812	0.005658	0.0062928	1	0	1	-360	360;
	103033744	103033758	0.000129647133	0.00013705104	-2.62549884e-07	0.0037812	0.005658	0.0062928	1	0	1	-360	360;
	103033758	68805228	2.62549884e-05	2.62549884e-05	-2.62549884e-07	6	8	10	1	0	1	-360	360;
	103033765	103033772	0.00928160679	0.0098116621	-2.62549884e-07	0.0037812	0.005658	0.0062928	1	0	1	-360	360;
	103033786	103033793	0.0331284104	0.0350203123	-2.62549884e-07	0.0037812	0.005658	0.0062928	1	0	1	-360	360;
	103033751	103033765	2.62549884e-05	2.62549884e-05	-2.62549884e-07	6	8	10	1	0	1	-360	360;
	103033793	103033800	2.62549884e-05	2.62549884e-05	-2.62549884e-07	6	8	10	1	0	1	-360	360;
	103033800	103033814	0.00409980276	0.00433393488	-2.62549884e-07	0.0037812	0.005658	0.0062928	1	0	1	-360	360;
	103033842	103033849	0.00459836341	0.00486096739	-2.62549884e-07	0.0037812	0.005658	0.0062928	1	0	1	-360	360;
	103033856	103033863	0.0044139897	0.00557987077	-2.62549884e-07	0.0025944	0.0038916	0.0043332	1	0	1	-360	360;
	103033870	103033877	0.0138847503	0.0146776826	-2.62549884e-07	0.0037812	0.005658	0.0062928	1	0	1	-360	360;
	103033863	2811166	2.62549884e-05	2.62549884e-05	-2.62549884e-07	6	8	10	1	0	1	-360	360;
	103033933	103033954	0.00259294266	0.00274102079	-2.62549884e-07	0.0037812	0.005658	0.0062928	1	0	1	-360	360;
	103033933	103033940	0.00577188204	0.00237932059	-2.62549884e-07	0.001863	0.0028014	0.003105	1	0	1	-360	360;
	103033947	103033961	0.0110518579	0.00742338124	-2.62549884e-07	0.001656	0.002484	0.0027738	1	0	1	-360	360;
	103033968	103033975	0.0136593246	0.00917478085	-2.62549884e-07	0.001656	0.002484	0.0027738	1	0	1	-360	360;
	103033982	103033989	0.0521454201	0.0583247074	-2.62549884e-07	0.0006624	0.0013662	0.0015318	1	0	1	-360	360;
	103034003	103034017	0.0264036974	0.0177350012	-2.62549884e-07	0.001656	0.002484	0.0027738	1	0	1	-360	360;
	103034003	103034010	0.143216868	0.160188218	-2.62549884e-07	0.0006624	0.0013662	0.0015318	1	0	1	-360	360;
	103034024	103034038	0.00899478221	0.00604167176	-2.62549884e-07	0.001656	0.002484	0.0027738	1	0	1	-360	360;
	103034052	103034059	0.0318144302	0.0355844737	-2.62549884e-07	0.0006624	0.0013662	0.0015318	1	0	1	-360	360;
	103034073	103034080	0.0953344732	0.0419302533	-2.62549884e-07	0.0012282	0.0018492	0.0020562	1	0	1	-360	360;
	103034031	103034052	2.62549884e-05	2.62549884e-05	-2.62549884e-07	6	8	10	1	0	1	-360	360;
	103034220	103034297	0.00558780798	0.00706373339	-2.62549884e-07	0.0025944	0.0038916	0.0043332	1	0	1	-360	360;
	103034297	103034311	0.00524992847	0.0066366087	-2.62549884e-07	0.0025944	0.0038916	0.0043332	1	0	1	-360	360;
	103034297	103034304	0.00603050336	0.0076233593	-2.62549884e-07	0.0025944	0.0038916	0.0043332	1	0	1	-360	360;
	103034311	103034346	0.0163219816	0.0172540996	-2.62549884e-07	0.0037812	0.005658	0.0062928	1	0	1	-360	360;
	103034346	103034360	0.00456718716	0.00482801073	-2.62549884e-07	0.0037812	0.005658	0.0062928	1	0	1	-360	360;
	103034360	103034367	0.0138258101	0.0146153764	-2.62549884e-07	0.0037812	0.005658	0.0062928	1	0	1	-360	360;
	103034367	103034374	0.00435622146	0.00460499716	-2.62549884e-07	0.0037812	0.005658	0.0062928	1	0	1	-360	360;
	103034381	103034388	0.00500276782	0.00528846659	-2.62549884e-07	0.0037812	0.005658	0.0062928	1	0	1	-360	360;
	103034395	103034402	0.0976556223	0.109227917	-2.62549884e-07	0.0006624	0.0013662	0.0015318	1	0	1	-360	360;
	103034318	103034332	0.00852878639	0.0107815217	-2.62549884e-07	0.0025944	0.0038916	0.0043332	1	0	1	-360	360;
	103034157	103034164	0.0989992629	0.11073078	-2.62549884e-07	0.0006624	0.0013662	0.0015318	1	0	1	-360	360;
	103034164	103034171	0.163298478	0.0718223567	-2.62549884e-07	0.0012282	0.0018492	0.0020562	1	0	1	-360	360;
	103034108	103034157	2.62549884e-05	2.62549884e-05	-2.62549884e-07	6	8	10	1	0	1	-360	360;
	103034297	103034318	0.0089880187	0.0113620525	-2.62549884e-07	0.0025944	0.0038916	0.0043332	1	0	1	-360	360;
	103034304	103034409	0.0580838418	0.0649668383	-2.62549884e-07	0.0006624	0.0013662	0.0015318	1	0	1	-360	360;
	103034346	103034353	0.0618178042	0.0271888657	-2.62549884e-07	0.0012282	0.0018492	0.0020562	1	0	1	-360	360;
	103034374	103034381	0.0159542776	0.0168653968	-2.62549884e-07	0.0037812	0.005658	0.0062928	1	0	1	-360	360;
	103034381	103034395	0.016236853	0.00714133447	-2.62549884e-07	0.0012282	0.0018492	0.0020562	1	0	1	-360	360;
	103034423	103034437	0.00840793516	0.0106287497	-2.62549884e-07	0.0025944	0.0038916	0.0043332	1	0	1	-360	360;
	103034423	103034430	0.0114754619	0.0121308042	-2.62549884e-07	0.0037812	0.005658	0.0062928	1	0	1	-360	360;
	103034430	103034444	0.0043581506	0.00460703648	-2.62549884e-07	0.0037812	0.005658	0.0062928	1	0	1	-360	360;
	103034486	103034493	0.00376869825	0.0039839216	-2.62549884e-07	0.0037812	0.005658	0.0062928	1	0	1	-360	360;
	103034430	103034486	2.62549884e-05	2.62549884e-05	-2.62549884e-07	6	8	10	1	0	1	-360	360;
	103034514	103034528	0.0291929965	0.0369038351	-2.62549884e-07	0.0025944	0.0038916	0.0043332	1	0	1	-360	360;
	103034514	103034521	0.0287511977	0.0321582449	-2.62549884e-07	0.0006624	0.0013662	0.0015318	1	0	1	-360	360;
	103034528	103034535	2.62549884e-05	2.62549884e-05	-2.62549884e-07	6	8	10	1	0	1	-360	360;
	103034535	103034542	0.030272721	0.0382687506	-2.62549884e-07	0.0025944	0.0038916	0.0043332	1	0	1	-360	360;
	103034542	103034563	0.00925876024	0.00621898217	-2.62549884e-07	0.001656	0.002484	0.0027738	1	0	1	-360	360;
	103034549	103034577	0.0113181486	0.014307647	-2.62549884e-07	0.0025944	0.0038916	0.0043332	1	0	1	-360	360;
	103034577	103034591	0.00998658613	0.00670785283	-2.62549884e-07	0.001656	0.002484	0.0027738	1	0	1	-360	360;
	103034577	103034584	0.00610214336	0.0077139218	-2.62549884e-07	0.0025944	0.0038916	0.0043332	1	0	1	-360	360;
	103034556	103034570	0.0532962693	0.0596119335	-2.62549884e-07	0.0006624	0.0013662	0.0015318	1	0	1	-360	360;
	103034633	103034640	0.0199431912	0.00822110452	-2.62549884e-07	0.001863	0.0028014	0.003105	1	0	1	-360	360;
	103034640	103034647	0.065393516	0.026956916	-2.62549884e-07	0.001863	0.0028014	0.003105	1	0	1	-360	360;
	103034647	103034661	0.0565754527	0.0233218799	-2.62549884e-07	0.001863	0.0028014	0.003105	1	0	1	-360	360;
	103034661	103034682	0.0269593378	0.0111133435	-2.62549884e-07	0.001863	0.0028014	0.003105	1	0	1	-360	360;
	103034689	103034710	0.0629399651	0.0259454982	-2.62549884e-07	0.001863	0.0028014	0.003105	1	0	1	-360	360;
	103034668	103034675	0.0395338241	0.0162968753	-2.62549884e-07	0.001863	0.0028014	0.003105	1	0	1	-360	360;
	103034738	103034752	0.021577926	0.0241349329	-2.62549884e-07	0.0006624	0.0013662	0.0015318	1	0	1	-360	360;
	103034563	103034724	2.62549884e-05	2.62549884e-05	-2.62549884e-07	6	8	10	1	0	1	-360	360;
	103034787	103034829	0.0657141626	0.0735013601	-2.62549884e-07	0.0006624	0.0013662	0.0015318	1	0	1	-360	360;
	103034787	103034822	0.0222158328	0.0248484324	-2.62549884e-07	0.0006624	0.0013662	0.0015318	1	0	1	-360	360;
	103034829	103034843	0.0246026239	0.0275180607	-2.62549884e-07	0.0006624	0.0013662	0.0015318	1	0	1	-360	360;
	103034794	103034801	0.0904942588	0.101217924	-2.62549884e-07	0.0006624	0.0013662	0.0015318	1	0	1	-360	360;
	103034815	103034850	2.62549884e-05	2.62549884e-05	-2.62549884e-07	6	8	10	1	0	1	-360	360;
	103034871	103034878	0.114727609	0.128322952	-2.62549884e-07	0.0006624	0.0013662	0.0015318	1	0	1	-360	360;
	103034878	103034885	0.0362820039	0.0405814597	-2.62549884e-07	0.0006624	0.0013662	0.0015318	1	0	1	-360	360;
	103034885	103034934	0.0640412895	0.0716302499	-2.62549884e-07	0.0006624	0.0013662	0.0015318	1	0	1	-360	360;
	103034892	103034899	0.065326557	0.0730678229	-2.62549884e-07	0.0006624	0.0013662	0.0015318	1	0	1	-360	360;
	103034899	103034920	0.0359277871	0.0401852678	-2.62549884e-07	0.0006624	0.0013662	0.0015318	1	0	1	-360	360;
	103034899	103034913	0.141065096	0.0620436133	-2.62549884e-07	0.0012282	0.0018492	0.0020562	1	0	1	-360	360;
	103034920	103034927	0.114325751	0.127873473	-2.62549884e-07	0.0006624	0.0013662	0.0015318	1	0	1	-360	360;
	103035053	103035060	0.0899193801	0.100574921	-2.62549884e-07	0.0006624	0.0013662	0.0015318	1	0	1	-360	360;
	103035060	103035067	0.0608550307	0.0680664161	-2.62549884e-07	0.0006624	0.0013662	0.0015318	1	0	1	-360	360;
	103035067	103035081	0.0614299349	0.0687094469	-2.62549884e-07	0.0006624	0.0013662	0.0015318	1	0	1	-360	360;
	103035102	103035123	0.0246026239	0.0275180607	-2.62549884e-07	0.0006624	0.0013662	0.0015318	1	0	1	-360	360;
	103035130	103035137	0.0272902301	0.0288487244	-2.62549884e-07	0.0037812	0.005658	0.0062928	1	0	1	-360	360;
	103035144	103035151	0.0129806521	0.013721953	-2.62549884e-07	0.0037812	0.005658	0.0062928	1	0	1	-360	360;
	103035158	103035165	0.00266013747	0.00281205298	-2.62549884e-07	0.0037812	0.005658	0.0062928	1	0	1	-360	360;
	103035165	103035186	0.00818619094	0.00865368908	-2.62549884e-07	0.0037812	0.005658	0.0062928	1	0	1	-360	360;
	103035151	103035158	2.62549884e-05	2.62549884e-05	-2.62549884e-07	6	8	10	1	0	1	-360	360;
	103035172	103035179	2.62549884e-05	2.62549884e-05	-2.62549884e-07	6	8	10	1	0	1	-360	360;
	103035179	103035193	0.00900557767	0.00951986947	-2.62549884e-07	0.0037812	0.005658	0.0062928	1	0	1	-360	360;
	103035207	103035214	2.62549884e-05	2.62549884e-05	-2.62549884e-07	6	8	10	1	0	1	-360	360;
	103035263	103035270	0.0939957005	0.10513429	-2.62549884e-07	0.0006624	0.0013662	0.0015318	1	0	1	-360	360;
	103035270	103035277	0.126376292	0.141352016	-2.62549884e-07	0.0006624	0.0013662	0.0015318	1	0	1	-360	360;
	103035368	103035375	0.0227416313	0.0254365386	-2.62549884e-07	0.0006624	0.0013662	0.0015318	1	0	1	-360	360;
	103035382	103035389	0.011475005	0.00504696623	-2.62549884e-07	0.0012282	0.0018492	0.0020562	1	0	1	-360	360;
	103035389	103035396	0.0296210134	0.0130279903	-2.62549884e-07	0.0012282	0.0018492	0.0020562	1	0	1	-360	360;
	103035396	103035403	0.0695273597	0.0305797022	-2.62549884e-07	0.0012282	0.0018492	0.0020562	1	0	1	-360	360;
	103035403	103035410	0.0277062379	0.0121858288	-2.62549884e-07	0.0012282	0.0018492	0.0020562	1	0	1	-360	360;
	103035410	103035417	0.0788434305	0.0346771204	-2.62549884e-07	0.0012282	0.0018492	0.0020562	1	0	1	-360	360;
	103035347	103035382	2.62549884e-05	2.62549884e-05	-2.62549884e-07	6	8	10	1	0	1	-360	360;
	103035459	103035466	0.126234207	0.0555206538	-2.62549884e-07	0.0012282	0.0018492	0.0020562	1	0	1	-360	360;
	103035473	103035480	0.0369138006	0.0512622413	-2.62549884e-07	0.002622	0.0039468	0.0043884	1	0	1	-360	360;
	103035508	103035515	0.160481731	0.179498985	-2.62549884e-07	0.0006624	0.0013662	0.0015318	1	0	1	-360	360;
	103035515	103035522	0.0523038516	0.0230044146	-2.62549884e-07	0.0012282	0.0018492	0.0020562	1	0	1	-360	360;
	103035536	103035543	0.16194888	0.181139994	-2.62549884e-07	0.0006624	0.0013662	0.0015318	1	0	1	-360	360;
	103035543	103035550	0.0312235384	0.0349235606	-2.62549884e-07	0.0006624	0.0013662	0.0015318	1	0	1	-360	360;
	103035550	103035564	0.116701015	0.130530208	-2.62549884e-07	0.0006624	0.0013662	0.0015318	1	0	1	-360	360;
	103035550	103035557	0.192024066	0.214779121	-2.62549884e-07	0.0006624	0.0013662	0.0015318	1	0	1	-360	360;
	103035578	103035592	0.053008136	0.059289656	-2.62549884e-07	0.0006624	0.0013662	0.0015318	1	0	1	-360	360;
	103033849	103035571	2.62549884e-05	2.62549884e-05	-2.62549884e-07	6	8	10	1	0	1	-360	360;
	103035606	103035613	0.107729406	0.120495454	-2.62549884e-07	0.0006624	0.0013662	0.0015318	1	0	1	-360	360;
	103035669	103035676	0.00349085666	0.003690213	-2.62549884e-07	0.0037812	0.005658	0.0062928	1	0	1	-360	360;
	103035676	3013809	0.000869700194	0.000919367155	-2.62549884e-07	0.0037812	0.005658	0.0062928	1	0	1	-360	360;
	103035676	103035683	0.00475647846	0.0050281121	-2.62549884e-07	0.0037812	0.005658	0.0062928	1	0	1	-360	360;
	103035662	103035669	2.62549884e-05	2.62549884e-05	-2.62549884e-07	6	8	10	1	0	1	-360	360;
	103035697	103035704	0.00409364841	0.00432742906	-2.62549884e-07	0.0037812	0.005658	0.0062928	1	0	1	-360	360;
	103035732	103035746	0.00119528822	0.00126354891	-2.62549884e-07	0.0037812	0.005658	0.0062928	1	0	1	-360	360;
	103035732	103035739	0.00330536662	0.00349412996	-2.62549884e-07	0.0037812	0.005658	0.0062928	1	0	1	-360	360;
	103035739	103035753	0.0376632215	0.0252978689	-2.62549884e-07	0.001656	0.002484	0.0027738	1	0	1	-360	360;
	103035760	103035767	0.047196096	0.0317009699	-2.62549884e-07	0.001656	0.002484	0.0027738	1	0	1	-360	360;
	103035718	103035725	2.62549884e-05	2.62549884e-05	-2.62549884e-07	6	8	10	1	0	1	-360	360;
	103035774	103035781	0.00641472548	0.00282134106	-2.62549884e-07	0.0012282	0.0018492	0.0020562	1	0	1	-360	360;
	103035760	103035774	2.62549884e-05	2.62549884e-05	-2.62549884e-07	6	8	10	1	0	1	-360	360;
	103035802	103035816	0.0364517617	0.0160323076	-2.62549884e-07	0.0012282	0.0018492	0.0020562	1	0	1	-360	360;
	103035809	103035823	0.0132007982	0.00544171393	-2.62549884e-07	0.001863	0.0028014	0.003105	1	0	1	-360	360;
	103035837	103035851	0.0217631665	0.00957193188	-2.62549884e-07	0.0012282	0.0018492	0.0020562	1	0	1	-360	360;
	103035837	103035844	0.0136260057	0.0144041616	-2.62549884e-07	0.0037812	0.005658	0.0062928	1	0	1	-360	360;
	103035844	103035865	0.00806328934	0.00852376881	-2.62549884e-07	0.0037812	0.005658	0.0062928	1	0	1	-360	360;
	103035865	103035872	0.0144520317	0.0152773603	-2.62549884e-07	0.0037812	0.005658	0.0062928	1	0	1	-360	360;
	103035872	103035886	0.0152638994	0.00671340749	-2.62549884e-07	0.0012282	0.0018492	0.0020562	1	0	1	-360	360;
	103035879	103035907	0.00424680965	0.00448933705	-2.62549884e-07	0.0037812	0.005658	0.0062928	1	0	1	-360	360;
	103035879	103035893	0.00469959707	0.00496798233	-2.62549884e-07	0.0037812	0.005658	0.0062928	1	0	1	-360	360;
	103035900	103035914	0.00411821136	0.00435339475	-2.62549884e-07	0.0037812	0.005658	0.0062928	1	0	1	-360	360;
	103035746	103035788	2.62549884e-05	2.62549884e-05	-2.62549884e-07	6	8	10	1	0	1	-360	360;
	103035823	103035942	2.62549884e-05	2.62549884e-05	-2.62549884e-07	6	8	10	1	0	1	-360	360;
	103035956	103035963	0.0138605128	0.0146520609	-2.62549884e-07	0.0037812	0.005658	0.0062928	1	0	1	-360	360;
	103035963	103035970	0.00458188526	0.0048435482	-2.62549884e-07	0.0037812	0.005658	0.0062928	1	0	1	-360	360;
	103035970	103035984	0.0306119449	0.00934573279	-2.62549884e-07	0.000828	0.001242	0.0013938	1	0	1	-360	360;
	103035970	103035977	0.00429404269	0.00453926749	-2.62549884e-07	0.0037812	0.005658	0.0062928	1	0	1	-360	360;
	103035970	3746744	0.029921357	0.00913489843	-2.62549884e-07	0.000828	0.001242	0.0013938	1	0	1	-360	360;
	103036061	103036068	0.00934831305	0.010456098	-2.62549884e-07	0.0006624	0.0013662	0.0015318	1	0	1	-360	360;
	103036040	103036054	2.62549884e-05	2.62549884e-05	-2.62549884e-07	6	8	10	1	0	1	-360	360;
	103036075	103036082	0.0137289961	0.0145130336	-2.62549884e-07	0.0037812	0.005658	0.0062928	1	0	1	-360	360;
	103036082	103036089	0.00295640969	0.00312524475	-2.62549884e-07	0.0037812	0.005658	0.0062928	1	0	1	-360	360;
	103036089	103036096	2.62549884e-05	2.62549884e-05	-2.62549884e-07	6	8	10	1	0	1	-360	360;
	103036103	103036110	0.0115828734	0.00477476306	-2.62549884e-07	0.001863	0.0028014	0.003105	1	0	1	-360	360;
	103036110	103036117	0.0143708237	0.00592402904	-2.62549884e-07	0.001863	0.0028014	0.003105	1	0	1	-360	360;
	103036117	103036131	0.0375168159	0.0154654118	-2.62549884e-07	0.001863	0.0028014	0.003105	1	0	1	-360	360;
	103036117	103036124	0.0235308226	0.00970001992	-2.62549884e-07	0.001863	0.0028014	0.003105	1	0	1	-360	360;
	103036124	103036145	0.0080041603	0.00329952402	-2.62549884e-07	0.001863	0.0028014	0.003105	1	0	1	-360	360;
	103036124	103036138	0.0599306724	0.0247049891	-2.62549884e-07	0.001863	0.0028014	0.003105	1	0	1	-360	360;
	103036159	103036166	0.0887246959	0.036574638	-2.62549884e-07	0.001863	0.0028014	0.003105	1	0	1	-360	360;
	103036082	103036103	2.62549884e-05	2.62549884e-05	-2.62549884e-07	6	8	10	1	0	1	-360	360;
	103036299	103036306	0.00663456973	0.002734943	-2.62549884e-07	0.001863	0.0028014	0.003105	1	0	1	-360	360;
	103036271	103036299	2.62549884e-05	2.62549884e-05	-2.62549884e-07	6	8	10	1	0	1	-360	360;
	103036334	103036341	0.0297190225	0.033240758	-2.62549884e-07	0.0006624	0.0013662	0.0015318	1	0	1	-360	360;
	103036341	103036348	0.0207211305	0.00911362094	-2.62549884e-07	0.0012282	0.0018492	0.0020562	1	0	1	-360	360;
	103036348	103036355	0.0275293476	0.0307916044	-2.62549884e-07	0.0006624	0.0013662	0.0015318	1	0	1	-360	360;
	103036355	103036369	0.108341381	0.121179949	-2.62549884e-07	0.0006624	0.0013662	0.0015318	1	0	1	-360	360;
	103036012	103036313	2.62549884e-05	2.62549884e-05	-2.62549884e-07	6	8	10	1	0	1	-360	360;
	103036376	103036383	0.0819331875	0.0250139506	-2.62549884e-07	0.000828	0.001242	0.0013938	1	0	1	-360	360;
...
];

%%-----  OPF Data  -----%%
%% generator cost data
%	1	startup	shutdown	n	x1	y1	...	xn	yn
%	2	startup	shutdown	n	c(n-1)	...	c0
mpc.gencost = [
	2	0	0	3	0.25	20	0;
];
